Circuit: * C:\Users\MONSTER\Desktop\HH_4-1\EE463\Github\Hardware Project\EE463_Hardware_Project\dimmer.asc

.OP point found by inspection.

Date: Mon Jan 21 23:35:23 2019
Total elapsed time: 0.121 seconds.

tnom = 27
temp = 27
method = modified trap
totiter = 18648
traniter = 18648
tranpoints = 5163
accept = 3740
rejected = 1423
matrix size = 13
fillins = 4
solver = Normal
Matrix Compiler1: 1.51 KB object code size  0.4/0.1/[0.1]
Matrix Compiler2: 1.25 KB object code size  0.1/0.1/[0.1]

