Circuit: * C:\Users\MONSTER\Desktop\HH_4-1\EE463\Github\Hardware Project\EE463_Hardware_Project\Simulations\Dimmer\dimmer.asc

.OP point found by inspection.

Date: Mon Jan 21 23:45:58 2019
Total elapsed time: 0.790 seconds.

tnom = 27
temp = 27
method = modified trap
totiter = 199143
traniter = 199143
tranpoints = 62231
accept = 44913
rejected = 17318
matrix size = 13
fillins = 4
solver = Normal
Matrix Compiler1: 1.51 KB object code size  0.3/0.3/[0.2]
Matrix Compiler2: off  [0.2]/0.3/0.3

